data/IrishMVGrid/OpenDSS_Model/loads_stfd_VENTRY_426.dss
! Large customer loads                          
new load.largecustomer_502250355_A_id_MR_HUGH_CURRAN_10021357025_stfd_VENTRY_426 phases=1 conn=delta bus1=STN_426456.1.2 kV=10.7 kw=1.6675 kvar=0.5475 ! daily=ls_phaseA kwh=0.0                   
new load.largecustomer_502250355_B_id_MR_HUGH_CURRAN_10021357025_stfd_VENTRY_426 phases=1 conn=delta bus1=STN_426456.2.3 kV=10.7 kw=1.6675 kvar=0.5475 ! daily=ls_phaseB kwh=0.0                   
new load.largecustomer_502250355_C_id_MR_HUGH_CURRAN_10021357025_stfd_VENTRY_426 phases=1 conn=delta bus1=STN_426456.1.3 kV=10.7 kw=1.6675 kvar=0.5475 ! daily=ls_phaseC kwh=0.0                   
! Distributed and spot loads                         
new load.2264163_A_stfd_VENTRY_426_dist phases=1 conn=delta bus1=STN_426442.1.2 kV=10.7 kw=4.98159773415145 kvar=1.70326739221676 status=variable model=8 ZIPV=(0.8, 0.0, 0.19999999999999996, 0.8, 0.0, 0.19999999999999996, 0.8) ! daily=LS_PhaseA kwh=10786.333 customers=10.0 ! This is one phase of a 3-ph load
new load.2264163_B_stfd_VENTRY_426_dist phases=1 conn=delta bus1=STN_426442.2.3 kV=10.7 kw=4.98159773415145 kvar=1.70326739221676 status=variable model=8 ZIPV=(0.8, 0.0, 0.19999999999999996, 0.8, 0.0, 0.19999999999999996, 0.8) ! daily=LS_PhaseB kwh=10786.333 customers=10.0 ! This is one phase of a 3-ph load
new load.2264163_C_stfd_VENTRY_426_dist phases=1 conn=delta bus1=STN_426442.1.3 kV=10.7 kw=4.98159773415145 kvar=1.70326739221676 status=variable model=8 ZIPV=(0.8, 0.0, 0.19999999999999996, 0.8, 0.0, 0.19999999999999996, 0.8) ! daily=LS_PhaseC kwh=10786.333 customers=10.0 ! This is one phase of a 3-ph load
new load.2264234_A_stfd_VENTRY_426_dist phases=1 conn=delta bus1=STN_426644.1.2 kV=10.7 kw=23.5296943487521 kvar=8.04508177332453 status=variable model=8 ZIPV=(0.8, 0.0, 0.19999999999999996, 0.8, 0.0, 0.19999999999999996, 0.8) ! daily=LS_PhaseA kwh=50947.333 customers=7.0 ! This is one phase of a 3-ph load
new load.2264234_B_stfd_VENTRY_426_dist phases=1 conn=delta bus1=STN_426644.2.3 kV=10.7 kw=23.5296943487521 kvar=8.04508177332453 status=variable model=8 ZIPV=(0.8, 0.0, 0.19999999999999996, 0.8, 0.0, 0.19999999999999996, 0.8) ! daily=LS_PhaseB kwh=50947.333 customers=7.0 ! This is one phase of a 3-ph load
new load.2264234_C_stfd_VENTRY_426_dist phases=1 conn=delta bus1=STN_426644.1.3 kV=10.7 kw=23.5296943487521 kvar=8.04508177332453 status=variable model=8 ZIPV=(0.8, 0.0, 0.19999999999999996, 0.8, 0.0, 0.19999999999999996, 0.8) ! daily=LS_PhaseC kwh=50947.333 customers=7.0 ! This is one phase of a 3-ph load
new load.2264242_A_stfd_VENTRY_426_dist phases=1 conn=delta bus1=STN_426652.1.2 kV=10.7 kw=41.9681802610838 kvar=14.3494189543498 status=variable model=8 ZIPV=(0.8, 0.0, 0.19999999999999996, 0.8, 0.0, 0.19999999999999996, 0.8) ! daily=LS_PhaseA kwh=90871.0 customers=11.0 ! This is one phase of a 3-ph load
new load.2264242_B_stfd_VENTRY_426_dist phases=1 conn=delta bus1=STN_426652.2.3 kV=10.7 kw=41.9681802610838 kvar=14.3494189543498 status=variable model=8 ZIPV=(0.8, 0.0, 0.19999999999999996, 0.8, 0.0, 0.19999999999999996, 0.8) ! daily=LS_PhaseB kwh=90871.0 customers=11.0 ! This is one phase of a 3-ph load
new load.2264242_C_stfd_VENTRY_426_dist phases=1 conn=delta bus1=STN_426652.1.3 kV=10.7 kw=41.9681802610838 kvar=14.3494189543498 status=variable model=8 ZIPV=(0.8, 0.0, 0.19999999999999996, 0.8, 0.0, 0.19999999999999996, 0.8) ! daily=LS_PhaseC kwh=90871.0 customers=11.0 ! This is one phase of a 3-ph load
new load.2264300_C_stfd_VENTRY_426_dist phases=1 conn=delta bus1=STN_426124.1.3 kV=10.7 kw=1.61091011159402 kvar=0.55078928715181 status=variable model=8 ZIPV=(0.8, 0.0, 0.19999999999999996, 0.8, 0.0, 0.19999999999999996, 0.8) ! daily=LS_PhaseC kwh=3488.0 customers=2.0 ! This is one phase of a 1-ph load
new load.2264303_C_stfd_VENTRY_426_dist phases=1 conn=delta bus1=STN_426619.1.3 kV=10.7 kw=20.9242813979009 kvar=7.15426016161122 status=variable model=8 ZIPV=(0.8, 0.0, 0.19999999999999996, 0.8, 0.0, 0.19999999999999996, 0.8) ! daily=LS_PhaseC kwh=45306.0 customers=14.0 ! This is one phase of a 1-ph load
new load.2264306_C_stfd_VENTRY_426_dist phases=1 conn=delta bus1=STN_4264010.1.3 kV=10.7 kw=1.09549277084318 kvar=0.374561980826862 status=variable model=8 ZIPV=(0.8, 0.0, 0.19999999999999996, 0.8, 0.0, 0.19999999999999996, 0.8) ! daily=LS_PhaseC kwh=2372.0 customers=1.0 ! This is one phase of a 1-ph load
new load.2264322_C_stfd_VENTRY_426_dist phases=1 conn=delta bus1=STN_426622.1.3 kV=10.7 kw=1.54209543079485 kvar=0.527260731020612 status=variable model=8 ZIPV=(0.8, 0.0, 0.19999999999999996, 0.8, 0.0, 0.19999999999999996, 0.8) ! daily=LS_PhaseC kwh=3339.0 customers=3.0 ! This is one phase of a 1-ph load
new load.2264333_B_stfd_VENTRY_426_dist phases=1 conn=delta bus1=STN_426041.2.3 kV=10.7 kw=3.13915023752998 kvar=1.07331272499164 status=variable model=8 ZIPV=(0.8, 0.0, 0.19999999999999996, 0.8, 0.0, 0.19999999999999996, 0.8) ! daily=LS_PhaseB kwh=6797.0 customers=2.0 ! This is one phase of a 1-ph load
new load.2264350_A_stfd_VENTRY_426_dist phases=1 conn=delta bus1=STN_426010.1.2 kV=10.7 kw=6.65331739324065 kvar=2.27484818540968 status=variable model=8 ZIPV=(0.8, 0.0, 0.19999999999999996, 0.8, 0.0, 0.19999999999999996, 0.8) ! daily=LS_PhaseA kwh=14406.0 customers=2.0 ! This is one phase of a 1-ph load
new load.2264366_A_stfd_VENTRY_426_dist phases=1 conn=delta bus1=STN_426626.1.2 kV=10.7 kw=7.36455637599718 kvar=2.5180292353563 status=variable model=8 ZIPV=(0.8, 0.0, 0.19999999999999996, 0.8, 0.0, 0.19999999999999996, 0.8) ! daily=LS_PhaseA kwh=15946.0 customers=6.0 ! This is one phase of a 1-ph load
new load.2264369_A_stfd_VENTRY_426_dist phases=1 conn=delta bus1=STN_426857.1.2 kV=10.7 kw=0.755114114809695 kvar=0.258182478352412 status=variable model=8 ZIPV=(0.8, 0.0, 0.19999999999999996, 0.8, 0.0, 0.19999999999999996, 0.8) ! daily=LS_PhaseA kwh=1635.0 customers=1.0 ! This is one phase of a 1-ph load
new load.2264378_A_stfd_VENTRY_426_dist phases=1 conn=delta bus1=STN_426628.1.2 kV=10.7 kw=2.19421844615343 kvar=0.750229330062572 status=variable model=8 ZIPV=(0.8, 0.0, 0.19999999999999996, 0.8, 0.0, 0.19999999999999996, 0.8) ! daily=LS_PhaseA kwh=4751.0 customers=4.0 ! This is one phase of a 1-ph load
new load.2264389_B_stfd_VENTRY_426_dist phases=1 conn=delta bus1=STN_426630.2.3 kV=10.7 kw=1.86815693847414 kvar=0.638745030541592 status=variable model=8 ZIPV=(0.8, 0.0, 0.19999999999999996, 0.8, 0.0, 0.19999999999999996, 0.8) ! daily=LS_PhaseB kwh=4045.0 customers=2.0 ! This is one phase of a 1-ph load
new load.2264396_B_stfd_VENTRY_426_dist phases=1 conn=delta bus1=STN_426654.2.3 kV=10.7 kw=5.74210017702075 kvar=1.96329220388717 status=variable model=8 ZIPV=(0.8, 0.0, 0.19999999999999996, 0.8, 0.0, 0.19999999999999996, 0.8) ! daily=LS_PhaseB kwh=12433.0 customers=3.0 ! This is one phase of a 1-ph load
new load.2264401_B_stfd_VENTRY_426_dist phases=1 conn=delta bus1=STN_426083.2.3 kV=10.7 kw=8.65818000632255 kvar=2.9603345086683 status=variable model=8 ZIPV=(0.8, 0.0, 0.19999999999999996, 0.8, 0.0, 0.19999999999999996, 0.8) ! daily=LS_PhaseB kwh=18747.0 customers=4.0 ! This is one phase of a 1-ph load
new load.2264404_B_stfd_VENTRY_426_dist phases=1 conn=delta bus1=STN_426568.2.3 kV=10.7 kw=6.69626883830323 kvar=2.2895337942701 status=variable model=8 ZIPV=(0.8, 0.0, 0.19999999999999996, 0.8, 0.0, 0.19999999999999996, 0.8) ! daily=LS_PhaseB kwh=14499.0 customers=3.0 ! This is one phase of a 1-ph load
new load.2264417_A_stfd_VENTRY_426_dist phases=1 conn=delta bus1=STN_426050.1.2 kV=10.7 kw=35.0323684426055 kvar=11.9779825720066 status=variable model=8 ZIPV=(0.8, 0.0, 0.19999999999999996, 0.8, 0.0, 0.19999999999999996, 0.8) ! daily=LS_PhaseA kwh=75853.333 customers=38.0 ! This is one phase of a 3-ph load
new load.2264417_B_stfd_VENTRY_426_dist phases=1 conn=delta bus1=STN_426050.2.3 kV=10.7 kw=35.0323684426055 kvar=11.9779825720066 status=variable model=8 ZIPV=(0.8, 0.0, 0.19999999999999996, 0.8, 0.0, 0.19999999999999996, 0.8) ! daily=LS_PhaseB kwh=75853.333 customers=38.0 ! This is one phase of a 3-ph load
new load.2264417_C_stfd_VENTRY_426_dist phases=1 conn=delta bus1=STN_426050.1.3 kV=10.7 kw=35.0323684426055 kvar=11.9779825720066 status=variable model=8 ZIPV=(0.8, 0.0, 0.19999999999999996, 0.8, 0.0, 0.19999999999999996, 0.8) ! daily=LS_PhaseC kwh=75853.333 customers=38.0 ! This is one phase of a 3-ph load
new load.2264428_A_stfd_VENTRY_426_dist phases=1 conn=delta bus1=STN_426089.1.2 kV=10.7 kw=9.23533058155918 kvar=3.15766914057975 status=variable model=8 ZIPV=(0.8, 0.0, 0.19999999999999996, 0.8, 0.0, 0.19999999999999996, 0.8) ! daily=LS_PhaseA kwh=19996.667 customers=10.0 ! This is one phase of a 3-ph load
new load.2264428_B_stfd_VENTRY_426_dist phases=1 conn=delta bus1=STN_426089.2.3 kV=10.7 kw=9.23533058155918 kvar=3.15766914057975 status=variable model=8 ZIPV=(0.8, 0.0, 0.19999999999999996, 0.8, 0.0, 0.19999999999999996, 0.8) ! daily=LS_PhaseB kwh=19996.667 customers=10.0 ! This is one phase of a 3-ph load
new load.2264428_C_stfd_VENTRY_426_dist phases=1 conn=delta bus1=STN_426089.1.3 kV=10.7 kw=9.23533058155918 kvar=3.15766914057975 status=variable model=8 ZIPV=(0.8, 0.0, 0.19999999999999996, 0.8, 0.0, 0.19999999999999996, 0.8) ! daily=LS_PhaseC kwh=19996.667 customers=10.0 ! This is one phase of a 3-ph load
new load.2264454_A_stfd_VENTRY_426_dist phases=1 conn=delta bus1=STN_426432.1.2 kV=10.7 kw=10.3619206604711 kvar=3.54286366013133 status=variable model=8 ZIPV=(0.8, 0.0, 0.19999999999999996, 0.8, 0.0, 0.19999999999999996, 0.8) ! daily=LS_PhaseA kwh=22436.0 customers=9.0 ! This is one phase of a 1-ph load
new load.2264473_A_stfd_VENTRY_426_dist phases=1 conn=delta bus1=STN_426085.1.2 kV=10.7 kw=7.84718282858197 kvar=2.68304494782008 status=variable model=8 ZIPV=(0.8, 0.0, 0.19999999999999996, 0.8, 0.0, 0.19999999999999996, 0.8) ! daily=LS_PhaseA kwh=16991.0 customers=5.0 ! This is one phase of a 1-ph load
new load.2264479_A_stfd_VENTRY_426_dist phases=1 conn=delta bus1=STN_426086.1.2 kV=10.7 kw=2.95764574387847 kvar=1.01125418432345 status=variable model=8 ZIPV=(0.8, 0.0, 0.19999999999999996, 0.8, 0.0, 0.19999999999999996, 0.8) ! daily=LS_PhaseA kwh=6404.0 customers=2.0 ! This is one phase of a 1-ph load
new load.2264608_B_stfd_VENTRY_426_dist phases=1 conn=delta bus1=STN_426433.2.3 kV=10.7 kw=2.64313032358158 kvar=0.903717629119785 status=variable model=8 ZIPV=(0.8, 0.0, 0.19999999999999996, 0.8, 0.0, 0.19999999999999996, 0.8) ! daily=LS_PhaseB kwh=5723.0 customers=5.0 ! This is one phase of a 1-ph load
new load.2264616_B_stfd_VENTRY_426_dist phases=1 conn=delta bus1=STN_426564.2.3 kV=10.7 kw=9.52413656000337 kvar=3.25641533246692 status=variable model=8 ZIPV=(0.8, 0.0, 0.19999999999999996, 0.8, 0.0, 0.19999999999999996, 0.8) ! daily=LS_PhaseB kwh=20622.0 customers=6.0 ! This is one phase of a 1-ph load
new load.2264624_C_stfd_VENTRY_426_dist phases=1 conn=delta bus1=STN_426056.1.3 kV=10.7 kw=1.85245425963406 kvar=0.633376098270042 status=variable model=8 ZIPV=(0.8, 0.0, 0.19999999999999996, 0.8, 0.0, 0.19999999999999996, 0.8) ! daily=LS_PhaseC kwh=4011.0 customers=2.0 ! This is one phase of a 1-ph load
new load.2264629_B_stfd_VENTRY_426_dist phases=1 conn=delta bus1=STN_426562.2.3 kV=10.7 kw=6.56602897262963 kvar=2.24500323837078 status=variable model=8 ZIPV=(0.8, 0.0, 0.19999999999999996, 0.8, 0.0, 0.19999999999999996, 0.8) ! daily=LS_PhaseB kwh=14217.0 customers=5.0 ! This is one phase of a 1-ph load
new load.2264643_B_stfd_VENTRY_426_dist phases=1 conn=delta bus1=STN_426441.2.3 kV=10.7 kw=6.999700014713 kvar=2.39328051492914 status=variable model=8 ZIPV=(0.8, 0.0, 0.19999999999999996, 0.8, 0.0, 0.19999999999999996, 0.8) ! daily=LS_PhaseB kwh=15156.0 customers=3.0 ! This is one phase of a 1-ph load
new load.2264646_B_stfd_VENTRY_426_dist phases=1 conn=delta bus1=STN_426824.2.3 kV=10.7 kw=0.641038771471473 kvar=0.219178764497338 status=variable model=8 ZIPV=(0.8, 0.0, 0.19999999999999996, 0.8, 0.0, 0.19999999999999996, 0.8) ! daily=LS_PhaseB kwh=1388.0 customers=2.0 ! This is one phase of a 1-ph load
new load.2264679_C_stfd_VENTRY_426_dist phases=1 conn=delta bus1=STN_426650.1.3 kV=10.7 kw=1.76378030853714 kvar=0.603057421913063 status=variable model=8 ZIPV=(0.8, 0.0, 0.19999999999999996, 0.8, 0.0, 0.19999999999999996, 0.8) ! daily=LS_PhaseC kwh=3819.0 customers=2.0 ! This is one phase of a 1-ph load
new load.2264687_A_stfd_VENTRY_426_dist phases=1 conn=delta bus1=STN_426022.1.2 kV=10.7 kw=10.7346283611754 kvar=3.67029684669425 status=variable model=8 ZIPV=(0.8, 0.0, 0.19999999999999996, 0.8, 0.0, 0.19999999999999996, 0.8) ! daily=LS_PhaseA kwh=23243.0 customers=7.0 ! This is one phase of a 1-ph load
new load.2264692_B_stfd_VENTRY_426_dist phases=1 conn=delta bus1=STN_426570.2.3 kV=10.7 kw=9.3264675440165 kvar=3.1888299497545 status=variable model=8 ZIPV=(0.8, 0.0, 0.19999999999999996, 0.8, 0.0, 0.19999999999999996, 0.8) ! daily=LS_PhaseB kwh=20194.0 customers=6.0 ! This is one phase of a 1-ph load
new load.2264700_A_stfd_VENTRY_426_dist phases=1 conn=delta bus1=STN_426611.1.2 kV=10.7 kw=1.6826496472489 kvar=0.575317885873472 status=variable model=8 ZIPV=(0.8, 0.0, 0.19999999999999996, 0.8, 0.0, 0.19999999999999996, 0.8) ! daily=LS_PhaseA kwh=3643.333 customers=5.0 ! This is one phase of a 3-ph load
new load.2264700_B_stfd_VENTRY_426_dist phases=1 conn=delta bus1=STN_426611.2.3 kV=10.7 kw=1.6826496472489 kvar=0.575317885873472 status=variable model=8 ZIPV=(0.8, 0.0, 0.19999999999999996, 0.8, 0.0, 0.19999999999999996, 0.8) ! daily=LS_PhaseB kwh=3643.333 customers=5.0 ! This is one phase of a 3-ph load
new load.2264700_C_stfd_VENTRY_426_dist phases=1 conn=delta bus1=STN_426611.1.3 kV=10.7 kw=1.6826496472489 kvar=0.575317885873472 status=variable model=8 ZIPV=(0.8, 0.0, 0.19999999999999996, 0.8, 0.0, 0.19999999999999996, 0.8) ! daily=LS_PhaseC kwh=3643.333 customers=5.0 ! This is one phase of a 3-ph load
new load.2264708_C_stfd_VENTRY_426_dist phases=1 conn=delta bus1=STN_426036.1.3 kV=10.7 kw=23.094483982299 kvar=7.89627818349377 status=variable model=8 ZIPV=(0.8, 0.0, 0.19999999999999996, 0.8, 0.0, 0.19999999999999996, 0.8) ! daily=LS_PhaseC kwh=50005.0 customers=13.0 ! This is one phase of a 1-ph load
new load.2264722_C_stfd_VENTRY_426_dist phases=1 conn=delta bus1=STN_426038.1.3 kV=10.7 kw=39.7042234471405 kvar=13.5753452486107 status=variable model=8 ZIPV=(0.8, 0.0, 0.19999999999999996, 0.8, 0.0, 0.19999999999999996, 0.8) ! daily=LS_PhaseC kwh=85969.0 customers=4.0 ! This is one phase of a 1-ph load
new load.2264737_C_stfd_VENTRY_426_dist phases=1 conn=delta bus1=STN_426093.1.3 kV=10.7 kw=0.251704704936565 kvar=0.0860608261174705 status=variable model=8 ZIPV=(0.8, 0.0, 0.19999999999999996, 0.8, 0.0, 0.19999999999999996, 0.8) ! daily=LS_PhaseC kwh=545.0 customers=1.0 ! This is one phase of a 1-ph load
new load.2264746_C_stfd_VENTRY_426_dist phases=1 conn=delta bus1=STN_426617.1.3 kV=10.7 kw=11.2897642425217 kvar=3.86010439347075 status=variable model=8 ZIPV=(0.8, 0.0, 0.19999999999999996, 0.8, 0.0, 0.19999999999999996, 0.8) ! daily=LS_PhaseC kwh=24445.0 customers=8.0 ! This is one phase of a 1-ph load
new load.2264749_C_stfd_VENTRY_426_dist phases=1 conn=delta bus1=STN_426450.1.3 kV=10.7 kw=10.8265352167394 kvar=3.70172089146008 status=variable model=8 ZIPV=(0.8, 0.0, 0.19999999999999996, 0.8, 0.0, 0.19999999999999996, 0.8) ! daily=LS_PhaseC kwh=23442.0 customers=6.0 ! This is one phase of a 1-ph load
new load.2264761_C_stfd_VENTRY_426_dist phases=1 conn=delta bus1=STN_4264012.1.3 kV=10.7 kw=0.94308441739535 kvar=0.322451755838302 status=variable model=8 ZIPV=(0.8, 0.0, 0.19999999999999996, 0.8, 0.0, 0.19999999999999996, 0.8) ! daily=LS_PhaseC kwh=2042.0 customers=1.0 ! This is one phase of a 1-ph load
new load.2264767_A_stfd_VENTRY_426_dist phases=1 conn=delta bus1=STN_426054.1.2 kV=10.7 kw=4.53345574982995 kvar=1.55004232875062 status=variable model=8 ZIPV=(0.8, 0.0, 0.19999999999999996, 0.8, 0.0, 0.19999999999999996, 0.8) ! daily=LS_PhaseA kwh=9816.0 customers=2.0 ! This is one phase of a 1-ph load
new load.2264770_A_stfd_VENTRY_426_dist phases=1 conn=delta bus1=STN_426459.1.2 kV=10.7 kw=6.72213207403983 kvar=2.29837674154088 status=variable model=8 ZIPV=(0.8, 0.0, 0.19999999999999996, 0.8, 0.0, 0.19999999999999996, 0.8) ! daily=LS_PhaseA kwh=14555.0 customers=4.0 ! This is one phase of a 1-ph load
new load.2264773_A_stfd_VENTRY_426_dist phases=1 conn=delta bus1=STN_426460.1.2 kV=10.7 kw=5.43312687866742 kvar=1.85765056595582 status=variable model=8 ZIPV=(0.8, 0.0, 0.19999999999999996, 0.8, 0.0, 0.19999999999999996, 0.8) ! daily=LS_PhaseA kwh=11764.0 customers=4.0 ! This is one phase of a 1-ph load
new load.2264779_A_stfd_VENTRY_426_dist phases=1 conn=delta bus1=STN_426461.1.2 kV=10.7 kw=13.3421967356191 kvar=4.5618554233167 status=variable model=8 ZIPV=(0.8, 0.0, 0.19999999999999996, 0.8, 0.0, 0.19999999999999996, 0.8) ! daily=LS_PhaseA kwh=28889.0 customers=4.0 ! This is one phase of a 1-ph load
new load.2264782_B_stfd_VENTRY_426_dist phases=1 conn=delta bus1=STN_426075.2.3 kV=10.7 kw=6.8431350698075 kvar=2.33974910198635 status=variable model=8 ZIPV=(0.8, 0.0, 0.19999999999999996, 0.8, 0.0, 0.19999999999999996, 0.8) ! daily=LS_PhaseB kwh=14817.0 customers=7.0 ! This is one phase of a 1-ph load
new load.2264785_B_stfd_VENTRY_426_dist phases=1 conn=delta bus1=STN_426569.2.3 kV=10.7 kw=2.58355251268835 kvar=0.88334726844244 status=variable model=8 ZIPV=(0.8, 0.0, 0.19999999999999996, 0.8, 0.0, 0.19999999999999996, 0.8) ! daily=LS_PhaseB kwh=5594.0 customers=2.0 ! This is one phase of a 1-ph load
new load.2264799_C_stfd_VENTRY_426_dist phases=1 conn=delta bus1=STN_426739.1.3 kV=10.7 kw=3.19780436143263 kvar=1.09336726612361 status=variable model=8 ZIPV=(0.8, 0.0, 0.19999999999999996, 0.8, 0.0, 0.19999999999999996, 0.8) ! daily=LS_PhaseC kwh=6924.0 customers=1.0 ! This is one phase of a 1-ph load
new load.2264805_C_stfd_VENTRY_426_dist phases=1 conn=delta bus1=STN_426634.1.3 kV=10.7 kw=11.1124163403279 kvar=3.7994670407568 status=variable model=8 ZIPV=(0.8, 0.0, 0.19999999999999996, 0.8, 0.0, 0.19999999999999996, 0.8) ! daily=LS_PhaseC kwh=24061.0 customers=6.0 ! This is one phase of a 1-ph load
new load.2264810_C_stfd_VENTRY_426_dist phases=1 conn=delta bus1=STN_426567.1.3 kV=10.7 kw=0.19120320705273 kvar=0.065374645894739 status=variable model=8 ZIPV=(0.8, 0.0, 0.19999999999999996, 0.8, 0.0, 0.19999999999999996, 0.8) ! daily=LS_PhaseC kwh=414.0 customers=1.0 ! This is one phase of a 1-ph load
new load.2264818_A_stfd_VENTRY_426_dist phases=1 conn=delta bus1=STN_426636.1.2 kV=10.7 kw=25.6597165490595 kvar=8.77336164498282 status=variable model=8 ZIPV=(0.8, 0.0, 0.19999999999999996, 0.8, 0.0, 0.19999999999999996, 0.8) ! daily=LS_PhaseA kwh=55559.333 customers=19.0 ! This is one phase of a 3-ph load
new load.2264818_B_stfd_VENTRY_426_dist phases=1 conn=delta bus1=STN_426636.2.3 kV=10.7 kw=25.6597165490595 kvar=8.77336164498282 status=variable model=8 ZIPV=(0.8, 0.0, 0.19999999999999996, 0.8, 0.0, 0.19999999999999996, 0.8) ! daily=LS_PhaseB kwh=55559.333 customers=19.0 ! This is one phase of a 3-ph load
new load.2264818_C_stfd_VENTRY_426_dist phases=1 conn=delta bus1=STN_426636.1.3 kV=10.7 kw=25.6597165490595 kvar=8.77336164498282 status=variable model=8 ZIPV=(0.8, 0.0, 0.19999999999999996, 0.8, 0.0, 0.19999999999999996, 0.8) ! daily=LS_PhaseC kwh=55559.333 customers=19.0 ! This is one phase of a 3-ph load
new load.2264844_C_stfd_VENTRY_426_dist phases=1 conn=delta bus1=STN_426666.1.3 kV=10.7 kw=3.66426629168203 kvar=1.25285613654314 status=variable model=8 ZIPV=(0.8, 0.0, 0.19999999999999996, 0.8, 0.0, 0.19999999999999996, 0.8) ! daily=LS_PhaseC kwh=7934.0 customers=3.0 ! This is one phase of a 1-ph load
new load.2264854_C_stfd_VENTRY_426_dist phases=1 conn=delta bus1=STN_426473.1.3 kV=10.7 kw=23.2131777605901 kvar=7.93686099507577 status=variable model=8 ZIPV=(0.8, 0.0, 0.19999999999999996, 0.8, 0.0, 0.19999999999999996, 0.8) ! daily=LS_PhaseC kwh=50262.0 customers=15.0 ! This is one phase of a 1-ph load
new load.2264863_C_stfd_VENTRY_426_dist phases=1 conn=delta bus1=STN_426430.1.3 kV=10.7 kw=8.04115709660648 kvar=2.74936705235098 status=variable model=8 ZIPV=(0.8, 0.0, 0.19999999999999996, 0.8, 0.0, 0.19999999999999996, 0.8) ! daily=LS_PhaseC kwh=17411.0 customers=3.0 ! This is one phase of a 1-ph load
new load.2264884_B_stfd_VENTRY_426_dist phases=1 conn=delta bus1=STN_426437.2.3 kV=10.7 kw=3.4088668387831 kvar=1.16553203224413 status=variable model=8 ZIPV=(0.8, 0.0, 0.19999999999999996, 0.8, 0.0, 0.19999999999999996, 0.8) ! daily=LS_PhaseB kwh=7381.0 customers=1.0 ! This is one phase of a 1-ph load
new load.2264923_B_stfd_VENTRY_426_dist phases=1 conn=delta bus1=STN_426064.2.3 kV=10.7 kw=1.3139447441184 kvar=0.449253303310465 status=variable model=8 ZIPV=(0.8, 0.0, 0.19999999999999996, 0.8, 0.0, 0.19999999999999996, 0.8) ! daily=LS_PhaseB kwh=2845.0 customers=1.0 ! This is one phase of a 1-ph load
new load.2264953_A_stfd_VENTRY_426_dist phases=1 conn=delta bus1=STN_426447.1.2 kV=10.7 kw=25.4000067108188 kvar=8.68456376877528 status=variable model=8 ZIPV=(0.8, 0.0, 0.19999999999999996, 0.8, 0.0, 0.19999999999999996, 0.8) ! daily=LS_PhaseA kwh=54997.0 customers=15.0 ! This is one phase of a 3-ph load
new load.2264953_B_stfd_VENTRY_426_dist phases=1 conn=delta bus1=STN_426447.2.3 kV=10.7 kw=25.4000067108188 kvar=8.68456376877528 status=variable model=8 ZIPV=(0.8, 0.0, 0.19999999999999996, 0.8, 0.0, 0.19999999999999996, 0.8) ! daily=LS_PhaseB kwh=54997.0 customers=15.0 ! This is one phase of a 3-ph load
new load.2264953_C_stfd_VENTRY_426_dist phases=1 conn=delta bus1=STN_426447.1.3 kV=10.7 kw=25.4000067108188 kvar=8.68456376877528 status=variable model=8 ZIPV=(0.8, 0.0, 0.19999999999999996, 0.8, 0.0, 0.19999999999999996, 0.8) ! daily=LS_PhaseC kwh=54997.0 customers=15.0 ! This is one phase of a 3-ph load
new load.2264972_C_stfd_VENTRY_426_dist phases=1 conn=delta bus1=STN_426024.1.3 kV=10.7 kw=13.6326962941606 kvar=4.66118067034035 status=variable model=8 ZIPV=(0.8, 0.0, 0.19999999999999996, 0.8, 0.0, 0.19999999999999996, 0.8) ! daily=LS_PhaseC kwh=29518.0 customers=10.0 ! This is one phase of a 1-ph load
new load.2265065_B_stfd_VENTRY_426_dist phases=1 conn=delta bus1=STN_426480.2.3 kV=10.7 kw=19.6140314017449 kvar=6.7062701364823 status=variable model=8 ZIPV=(0.8, 0.0, 0.19999999999999996, 0.8, 0.0, 0.19999999999999996, 0.8) ! daily=LS_PhaseB kwh=42469.0 customers=8.0 ! This is one phase of a 1-ph load
new load.2265070_C_stfd_VENTRY_426_dist phases=1 conn=delta bus1=STN_426061.1.3 kV=10.7 kw=2.82463481723307 kvar=0.96577616978798 status=variable model=8 ZIPV=(0.8, 0.0, 0.19999999999999996, 0.8, 0.0, 0.19999999999999996, 0.8) ! daily=LS_PhaseC kwh=6116.0 customers=3.0 ! This is one phase of a 1-ph load
new load.2265083_B_stfd_VENTRY_426_dist phases=1 conn=delta bus1=STN_426481.2.3 kV=10.7 kw=7.07359497396043 kvar=2.41854607855996 status=variable model=8 ZIPV=(0.8, 0.0, 0.19999999999999996, 0.8, 0.0, 0.19999999999999996, 0.8) ! daily=LS_PhaseB kwh=15316.0 customers=6.0 ! This is one phase of a 1-ph load
new load.2265093_B_stfd_VENTRY_426_dist phases=1 conn=delta bus1=STN_426101.2.3 kV=10.7 kw=7.663369117454 kvar=2.62019685828843 status=variable model=8 ZIPV=(0.8, 0.0, 0.19999999999999996, 0.8, 0.0, 0.19999999999999996, 0.8) ! daily=LS_PhaseB kwh=16593.0 customers=4.0 ! This is one phase of a 1-ph load
new load.2265105_C_stfd_VENTRY_426_dist phases=1 conn=delta bus1=STN_426810.1.3 kV=10.7 kw=5.2045143484957 kvar=1.77948522847298 status=variable model=8 ZIPV=(0.8, 0.0, 0.19999999999999996, 0.8, 0.0, 0.19999999999999996, 0.8) ! daily=LS_PhaseC kwh=11269.0 customers=2.0 ! This is one phase of a 1-ph load
new load.2265193_C_stfd_VENTRY_426_dist phases=1 conn=delta bus1=STN_426579.1.3 kV=10.7 kw=7.21538092701643 kvar=2.46702437877659 status=variable model=8 ZIPV=(0.8, 0.0, 0.19999999999999996, 0.8, 0.0, 0.19999999999999996, 0.8) ! daily=LS_PhaseC kwh=15623.0 customers=4.0 ! This is one phase of a 1-ph load
new load.2265199_C_stfd_VENTRY_426_dist phases=1 conn=delta bus1=STN_426614.1.3 kV=10.7 kw=41.8661128486232 kvar=14.3145208945847 status=variable model=8 ZIPV=(0.8, 0.0, 0.19999999999999996, 0.8, 0.0, 0.19999999999999996, 0.8) ! daily=LS_PhaseC kwh=90650.0 customers=1.0 ! This is one phase of a 1-ph load
new load.2265202_C_stfd_VENTRY_426_dist phases=1 conn=delta bus1=STN_426615.1.3 kV=10.7 kw=16.2795213657046 kvar=5.56616157764168 status=variable model=8 ZIPV=(0.8, 0.0, 0.19999999999999996, 0.8, 0.0, 0.19999999999999996, 0.8) ! daily=LS_PhaseC kwh=35249.0 customers=4.0 ! This is one phase of a 1-ph load
new load.2265205_C_stfd_VENTRY_426_dist phases=1 conn=delta bus1=STN_426092.1.3 kV=10.7 kw=1.79426197922671 kvar=0.613479466910775 status=variable model=8 ZIPV=(0.8, 0.0, 0.19999999999999996, 0.8, 0.0, 0.19999999999999996, 0.8) ! daily=LS_PhaseC kwh=3885.0 customers=1.0 ! This is one phase of a 1-ph load
new load.2265211_C_stfd_VENTRY_426_dist phases=1 conn=delta bus1=STN_426616.1.3 kV=10.7 kw=11.88692788194 kvar=4.0642817295623 status=variable model=8 ZIPV=(0.8, 0.0, 0.19999999999999996, 0.8, 0.0, 0.19999999999999996, 0.8) ! daily=LS_PhaseC kwh=25738.0 customers=9.0 ! This is one phase of a 1-ph load
new load.2265214_C_stfd_VENTRY_426_dist phases=1 conn=delta bus1=STN_426408.1.3 kV=10.7 kw=16.3806650911745 kvar=5.60074381786135 status=variable model=8 ZIPV=(0.8, 0.0, 0.19999999999999996, 0.8, 0.0, 0.19999999999999996, 0.8) ! daily=LS_PhaseC kwh=35468.0 customers=6.0 ! This is one phase of a 1-ph load
new load.2265217_C_stfd_VENTRY_426_dist phases=1 conn=delta bus1=STN_426012.1.3 kV=10.7 kw=7.23431651032358 kvar=2.47349867945699 status=variable model=8 ZIPV=(0.8, 0.0, 0.19999999999999996, 0.8, 0.0, 0.19999999999999996, 0.8) ! daily=LS_PhaseC kwh=15664.0 customers=7.0 ! This is one phase of a 1-ph load
new load.2265220_A_stfd_VENTRY_426_dist phases=1 conn=delta bus1=STN_426786.1.2 kV=10.7 kw=4.94772936511087 kvar=1.69168739485589 status=variable model=8 ZIPV=(0.8, 0.0, 0.19999999999999996, 0.8, 0.0, 0.19999999999999996, 0.8) ! daily=LS_PhaseA kwh=10713.0 customers=3.0 ! This is one phase of a 1-ph load
new load.2265226_C_stfd_VENTRY_426_dist phases=1 conn=delta bus1=STN_426096.1.3 kV=10.7 kw=3.00059718894103 kvar=1.02593979318386 status=variable model=8 ZIPV=(0.8, 0.0, 0.19999999999999996, 0.8, 0.0, 0.19999999999999996, 0.8) ! daily=LS_PhaseC kwh=6497.0 customers=3.0 ! This is one phase of a 1-ph load
new load.2265229_C_stfd_VENTRY_426_dist phases=1 conn=delta bus1=STN_426049.1.3 kV=10.7 kw=0.585155708540603 kvar=0.200071682001532 status=variable model=8 ZIPV=(0.8, 0.0, 0.19999999999999996, 0.8, 0.0, 0.19999999999999996, 0.8) ! daily=LS_PhaseC kwh=1267.0 customers=1.0 ! This is one phase of a 1-ph load
new load.2265238_C_stfd_VENTRY_426_dist phases=1 conn=delta bus1=STN_426813.1.3 kV=10.7 kw=3.927517084001 kvar=1.34286470697792 status=variable model=8 ZIPV=(0.8, 0.0, 0.19999999999999996, 0.8, 0.0, 0.19999999999999996, 0.8) ! daily=LS_PhaseC kwh=8504.0 customers=2.0 ! This is one phase of a 1-ph load
new load.2265245_C_stfd_VENTRY_426_dist phases=1 conn=delta bus1=STN_426476.1.3 kV=10.7 kw=8.19818388500727 kvar=2.80305637506645 status=variable model=8 ZIPV=(0.8, 0.0, 0.19999999999999996, 0.8, 0.0, 0.19999999999999996, 0.8) ! daily=LS_PhaseC kwh=17751.0 customers=3.0 ! This is one phase of a 1-ph load
new load.2265248_C_stfd_VENTRY_426_dist phases=1 conn=delta bus1=STN_426475.1.3 kV=10.7 kw=5.88203875609557 kvar=2.01113886501303 status=variable model=8 ZIPV=(0.8, 0.0, 0.19999999999999996, 0.8, 0.0, 0.19999999999999996, 0.8) ! daily=LS_PhaseC kwh=12736.0 customers=6.0 ! This is one phase of a 1-ph load
new load.2265260_B_stfd_VENTRY_426_dist phases=1 conn=delta bus1=STN_426415.2.3 kV=10.7 kw=8.1810956756813 kvar=2.79721371347682 status=variable model=8 ZIPV=(0.8, 0.0, 0.19999999999999996, 0.8, 0.0, 0.19999999999999996, 0.8) ! daily=LS_PhaseB kwh=17714.0 customers=8.0 ! This is one phase of a 1-ph load
new load.2265263_B_stfd_VENTRY_426_dist phases=1 conn=delta bus1=STN_426416.2.3 kV=10.7 kw=7.01540269355308 kvar=2.39864944720069 status=variable model=8 ZIPV=(0.8, 0.0, 0.19999999999999996, 0.8, 0.0, 0.19999999999999996, 0.8) ! daily=LS_PhaseB kwh=15190.0 customers=5.0 ! This is one phase of a 1-ph load
new load.2265266_B_stfd_VENTRY_426_dist phases=1 conn=delta bus1=STN_426785.2.3 kV=10.7 kw=2.20484084654525 kvar=0.753861254834503 status=variable model=8 ZIPV=(0.8, 0.0, 0.19999999999999996, 0.8, 0.0, 0.19999999999999996, 0.8) ! daily=LS_PhaseB kwh=4774.0 customers=1.0 ! This is one phase of a 1-ph load
new load.2265269_B_stfd_VENTRY_426_dist phases=1 conn=delta bus1=STN_426080.2.3 kV=10.7 kw=3.78711666143087 kvar=1.29486013607937 status=variable model=8 ZIPV=(0.8, 0.0, 0.19999999999999996, 0.8, 0.0, 0.19999999999999996, 0.8) ! daily=LS_PhaseB kwh=8200.0 customers=2.0 ! This is one phase of a 1-ph load
new load.2265272_B_stfd_VENTRY_426_dist phases=1 conn=delta bus1=STN_426759.2.3 kV=10.7 kw=0.696921834402343 kvar=0.238285846993143 status=variable model=8 ZIPV=(0.8, 0.0, 0.19999999999999996, 0.8, 0.0, 0.19999999999999996, 0.8) ! daily=LS_PhaseB kwh=1509.0 customers=1.0 ! This is one phase of a 1-ph load
new load.2265284_B_stfd_VENTRY_426_dist phases=1 conn=delta bus1=STN_426030.2.3 kV=10.7 kw=14.7000166117907 kvar=5.02611015503297 status=variable model=8 ZIPV=(0.8, 0.0, 0.19999999999999996, 0.8, 0.0, 0.19999999999999996, 0.8) ! daily=LS_PhaseB kwh=31829.0 customers=3.0 ! This is one phase of a 1-ph load
new load.2265287_C_stfd_VENTRY_426_dist phases=1 conn=delta bus1=STN_426057.1.3 kV=10.7 kw=17.3990299983031 kvar=5.94893486664855 status=variable model=8 ZIPV=(0.8, 0.0, 0.19999999999999996, 0.8, 0.0, 0.19999999999999996, 0.8) ! daily=LS_PhaseC kwh=37673.0 customers=4.0 ! This is one phase of a 1-ph load
new load.2265294_C_stfd_VENTRY_426_dist phases=1 conn=delta bus1=STN_426021.1.3 kV=10.7 kw=3.39085494246653 kvar=1.15937355110911 status=variable model=8 ZIPV=(0.8, 0.0, 0.19999999999999996, 0.8, 0.0, 0.19999999999999996, 0.8) ! daily=LS_PhaseC kwh=7342.0 customers=1.0 ! This is one phase of a 1-ph load
new load.2265300_C_stfd_VENTRY_426_dist phases=1 conn=delta bus1=STN_426429.1.3 kV=10.7 kw=13.6040619974522 kvar=4.6513902644334 status=variable model=8 ZIPV=(0.8, 0.0, 0.19999999999999996, 0.8, 0.0, 0.19999999999999996, 0.8) ! daily=LS_PhaseC kwh=29456.0 customers=7.0 ! This is one phase of a 1-ph load
new load.2265314_C_stfd_VENTRY_426_dist phases=1 conn=delta bus1=STN_426743.1.3 kV=10.7 kw=0.96386737468369 kvar=0.32955769560947 status=variable model=8 ZIPV=(0.8, 0.0, 0.19999999999999996, 0.8, 0.0, 0.19999999999999996, 0.8) ! daily=LS_PhaseC kwh=2087.0 customers=1.0 ! This is one phase of a 1-ph load
new load.2265317_C_stfd_VENTRY_426_dist phases=1 conn=delta bus1=STN_426444.1.3 kV=10.7 kw=30.2479778809457 kvar=10.3421426527295 status=variable model=8 ZIPV=(0.8, 0.0, 0.19999999999999996, 0.8, 0.0, 0.19999999999999996, 0.8) ! daily=LS_PhaseC kwh=65494.0 customers=18.0 ! This is one phase of a 1-ph load
new load.2265325_B_stfd_VENTRY_426_dist phases=1 conn=delta bus1=STN_426500.2.3 kV=10.7 kw=9.51997996854572 kvar=3.2549941445127 status=variable model=8 ZIPV=(0.8, 0.0, 0.19999999999999996, 0.8, 0.0, 0.19999999999999996, 0.8) ! daily=LS_PhaseB kwh=20613.0 customers=7.0 ! This is one phase of a 1-ph load
new load.2265382_C_stfd_VENTRY_426_dist phases=1 conn=delta bus1=STN_426446.1.3 kV=10.7 kw=1.51392297758176 kvar=0.517628234886362 status=variable model=8 ZIPV=(0.8, 0.0, 0.19999999999999996, 0.8, 0.0, 0.19999999999999996, 0.8) ! daily=LS_PhaseC kwh=3278.0 customers=1.0 ! This is one phase of a 1-ph load
new load.2265388_A_stfd_VENTRY_426_dist phases=1 conn=delta bus1=STN_426455.1.2 kV=10.7 kw=3.58021077553808 kvar=1.22411655791309 status=variable model=8 ZIPV=(0.8, 0.0, 0.19999999999999996, 0.8, 0.0, 0.19999999999999996, 0.8) ! daily=LS_PhaseA kwh=7752.0 customers=2.0 ! This is one phase of a 1-ph load
new load.2265396_C_stfd_VENTRY_426_dist phases=1 conn=delta bus1=STN_426478.1.3 kV=10.7 kw=2.30875563298695 kvar=0.789390953690338 status=variable model=8 ZIPV=(0.8, 0.0, 0.19999999999999996, 0.8, 0.0, 0.19999999999999996, 0.8) ! daily=LS_PhaseC kwh=4999.0 customers=3.0 ! This is one phase of a 1-ph load
new load.2265401_C_stfd_VENTRY_426_dist phases=1 conn=delta bus1=STN_426457.1.3 kV=10.7 kw=24.7525021304132 kvar=8.46317426746023 status=variable model=8 ZIPV=(0.8, 0.0, 0.19999999999999996, 0.8, 0.0, 0.19999999999999996, 0.8) ! daily=LS_PhaseC kwh=53595.0 customers=19.0 ! This is one phase of a 1-ph load
new load.2265409_B_stfd_VENTRY_426_dist phases=1 conn=delta bus1=STN_426841.2.3 kV=10.7 kw=0.550517446393368 kvar=0.188228449049587 status=variable model=8 ZIPV=(0.8, 0.0, 0.19999999999999996, 0.8, 0.0, 0.19999999999999996, 0.8) ! daily=LS_PhaseB kwh=1192.0 customers=1.0 ! This is one phase of a 1-ph load
new load.2265412_B_stfd_VENTRY_426_dist phases=1 conn=delta bus1=STN_426458.2.3 kV=10.7 kw=4.25727333964267 kvar=1.45561228468045 status=variable model=8 ZIPV=(0.8, 0.0, 0.19999999999999996, 0.8, 0.0, 0.19999999999999996, 0.8) ! daily=LS_PhaseB kwh=9218.0 customers=7.0 ! This is one phase of a 1-ph load
new load.2265415_B_stfd_VENTRY_426_dist phases=1 conn=delta bus1=STN_426043.2.3 kV=10.7 kw=4.08870046385947 kvar=1.39797521764764 status=variable model=8 ZIPV=(0.8, 0.0, 0.19999999999999996, 0.8, 0.0, 0.19999999999999996, 0.8) ! daily=LS_PhaseB kwh=8853.0 customers=2.0 ! This is one phase of a 1-ph load
new load.2265426_A_stfd_VENTRY_426_dist phases=1 conn=delta bus1=STN_426138.1.2 kV=10.7 kw=2.37295187883316 kvar=0.81134041209461 status=variable model=8 ZIPV=(0.8, 0.0, 0.19999999999999996, 0.8, 0.0, 0.19999999999999996, 0.8) ! daily=LS_PhaseA kwh=5138.0 customers=2.0 ! This is one phase of a 1-ph load
new load.2265429_A_stfd_VENTRY_426_dist phases=1 conn=delta bus1=STN_426548.1.2 kV=10.7 kw=7.88921058665395 kvar=2.6974147371351 status=variable model=8 ZIPV=(0.8, 0.0, 0.19999999999999996, 0.8, 0.0, 0.19999999999999996, 0.8) ! daily=LS_PhaseA kwh=17082.0 customers=12.0 ! This is one phase of a 1-ph load
new load.2265477_B_stfd_VENTRY_426_dist phases=1 conn=delta bus1=STN_426020.2.3 kV=10.7 kw=9.14727226784148 kvar=3.12756095794975 status=variable model=8 ZIPV=(0.8, 0.0, 0.19999999999999996, 0.8, 0.0, 0.19999999999999996, 0.8) ! daily=LS_PhaseB kwh=19806.0 customers=4.0 ! This is one phase of a 1-ph load
new load.2265480_C_stfd_VENTRY_426_dist phases=1 conn=delta bus1=STN_426088.1.3 kV=10.7 kw=8.70667357332868 kvar=2.97691503480102 status=variable model=8 ZIPV=(0.8, 0.0, 0.19999999999999996, 0.8, 0.0, 0.19999999999999996, 0.8) ! daily=LS_PhaseC kwh=18852.0 customers=6.0 ! This is one phase of a 1-ph load
new load.2265501_C_stfd_VENTRY_426_dist phases=1 conn=delta bus1=STN_426133.1.3 kV=10.7 kw=6.2972360583671 kvar=2.15309975066369 status=variable model=8 ZIPV=(0.8, 0.0, 0.19999999999999996, 0.8, 0.0, 0.19999999999999996, 0.8) ! daily=LS_PhaseC kwh=13635.0 customers=4.0 ! This is one phase of a 1-ph load
new load.2265504_C_stfd_VENTRY_426_dist phases=1 conn=delta bus1=STN_426040.1.3 kV=10.7 kw=18.3998448526105 kvar=6.29112534407342 status=variable model=8 ZIPV=(0.8, 0.0, 0.19999999999999996, 0.8, 0.0, 0.19999999999999996, 0.8) ! daily=LS_PhaseC kwh=39840.0 customers=6.0 ! This is one phase of a 1-ph load
new load.2265510_C_stfd_VENTRY_426_dist phases=1 conn=delta bus1=STN_426866.1.3 kV=10.7 kw=0.438751320531627 kvar=0.150014284057976 status=variable model=8 ZIPV=(0.8, 0.0, 0.19999999999999996, 0.8, 0.0, 0.19999999999999996, 0.8) ! daily=LS_PhaseC kwh=950.0 customers=1.0 ! This is one phase of a 1-ph load
new load.2265514_C_stfd_VENTRY_426_dist phases=1 conn=delta bus1=STN_426492.1.3 kV=10.7 kw=11.5151438682264 kvar=3.93716436254475 status=variable model=8 ZIPV=(0.8, 0.0, 0.19999999999999996, 0.8, 0.0, 0.19999999999999996, 0.8) ! daily=LS_PhaseC kwh=24933.0 customers=6.0 ! This is one phase of a 1-ph load
new load.2265529_C_stfd_VENTRY_426_dist phases=1 conn=delta bus1=STN_426577.1.3 kV=10.7 kw=3.95753691119527 kvar=1.35312884220294 status=variable model=8 ZIPV=(0.8, 0.0, 0.19999999999999996, 0.8, 0.0, 0.19999999999999996, 0.8) ! daily=LS_PhaseC kwh=8569.0 customers=2.0 ! This is one phase of a 1-ph load
new load.2265535_C_stfd_VENTRY_426_dist phases=1 conn=delta bus1=STN_426474.1.3 kV=10.7 kw=13.2895465771553 kvar=4.54385370922975 status=variable model=8 ZIPV=(0.8, 0.0, 0.19999999999999996, 0.8, 0.0, 0.19999999999999996, 0.8) ! daily=LS_PhaseC kwh=28775.0 customers=13.0 ! This is one phase of a 1-ph load
new load.2265562_B_stfd_VENTRY_426_dist phases=1 conn=delta bus1=STN_426419.2.3 kV=10.7 kw=25.9537570616792 kvar=8.8738975862337 status=variable model=8 ZIPV=(0.8, 0.0, 0.19999999999999996, 0.8, 0.0, 0.19999999999999996, 0.8) ! daily=LS_PhaseB kwh=56196.0 customers=13.0 ! This is one phase of a 1-ph load
new load.2265565_B_stfd_VENTRY_426_dist phases=1 conn=delta bus1=STN_426082.2.3 kV=10.7 kw=12.4864007388348 kvar=4.2692486145173 status=variable model=8 ZIPV=(0.8, 0.0, 0.19999999999999996, 0.8, 0.0, 0.19999999999999996, 0.8) ! daily=LS_PhaseB kwh=27036.0 customers=1.0 ! This is one phase of a 1-ph load
new load.2265568_C_stfd_VENTRY_426_dist phases=1 conn=delta bus1=STN_426565.1.3 kV=10.7 kw=2.63158423619918 kvar=0.89976988480247 status=variable model=8 ZIPV=(0.8, 0.0, 0.19999999999999996, 0.8, 0.0, 0.19999999999999996, 0.8) ! daily=LS_PhaseC kwh=5698.0 customers=1.0 ! This is one phase of a 1-ph load
new load.2265571_C_stfd_VENTRY_426_dist phases=1 conn=delta bus1=STN_426058.1.3 kV=10.7 kw=0.478931704622418 kvar=0.163752434282233 status=variable model=8 ZIPV=(0.8, 0.0, 0.19999999999999996, 0.8, 0.0, 0.19999999999999996, 0.8) ! daily=LS_PhaseC kwh=1037.0 customers=1.0 ! This is one phase of a 1-ph load
new load.2265577_C_stfd_VENTRY_426_dist phases=1 conn=delta bus1=STN_426084.1.3 kV=10.7 kw=0.905213250781042 kvar=0.309503154477507 status=variable model=8 ZIPV=(0.8, 0.0, 0.19999999999999996, 0.8, 0.0, 0.19999999999999996, 0.8) ! daily=LS_PhaseC kwh=1960.0 customers=2.0 ! This is one phase of a 1-ph load
new load.2265580_C_stfd_VENTRY_426_dist phases=1 conn=delta bus1=STN_426443.1.3 kV=10.7 kw=7.40381307309737 kvar=2.53145156603517 status=variable model=8 ZIPV=(0.8, 0.0, 0.19999999999999996, 0.8, 0.0, 0.19999999999999996, 0.8) ! daily=LS_PhaseC kwh=16031.0 customers=9.0 ! This is one phase of a 1-ph load
new load.2265583_B_stfd_VENTRY_426_dist phases=1 conn=delta bus1=STN_426496.2.3 kV=10.7 kw=22.1486285039318 kvar=7.57287896901933 status=variable model=8 ZIPV=(0.8, 0.0, 0.19999999999999996, 0.8, 0.0, 0.19999999999999996, 0.8) ! daily=LS_PhaseB kwh=47957.0 customers=9.0 ! This is one phase of a 1-ph load
new load.2265586_B_stfd_VENTRY_426_dist phases=1 conn=delta bus1=STN_426698.2.3 kV=10.7 kw=7.11331351455592 kvar=2.43212631901152 status=variable model=8 ZIPV=(0.8, 0.0, 0.19999999999999996, 0.8, 0.0, 0.19999999999999996, 0.8) ! daily=LS_PhaseB kwh=15402.0 customers=3.0 ! This is one phase of a 1-ph load
new load.2265589_B_stfd_VENTRY_426_dist phases=1 conn=delta bus1=STN_426497.2.3 kV=10.7 kw=4.33532489034778 kvar=1.4822990362655 status=variable model=8 ZIPV=(0.8, 0.0, 0.19999999999999996, 0.8, 0.0, 0.19999999999999996, 0.8) ! daily=LS_PhaseB kwh=9387.0 customers=2.0 ! This is one phase of a 1-ph load
new load.2265595_B_stfd_VENTRY_426_dist phases=1 conn=delta bus1=STN_426123.2.3 kV=10.7 kw=0.105300316927591 kvar=0.0360034281739142 status=variable model=8 ZIPV=(0.8, 0.0, 0.19999999999999996, 0.8, 0.0, 0.19999999999999996, 0.8) ! daily=LS_PhaseB kwh=228.0 customers=1.0 ! This is one phase of a 1-ph load
new load.2265598_B_stfd_VENTRY_426_dist phases=1 conn=delta bus1=STN_426499.2.3 kV=10.7 kw=24.5248132872321 kvar=8.38532474952278 status=variable model=8 ZIPV=(0.8, 0.0, 0.19999999999999996, 0.8, 0.0, 0.19999999999999996, 0.8) ! daily=LS_PhaseB kwh=53102.0 customers=7.0 ! This is one phase of a 1-ph load
new load.2265603_B_stfd_VENTRY_426_dist phases=1 conn=delta bus1=STN_426026.2.3 kV=10.7 kw=4.44029591286322 kvar=1.51818987477148 status=variable model=8 ZIPV=(0.8, 0.0, 0.19999999999999996, 0.8, 0.0, 0.19999999999999996, 0.8) ! daily=LS_PhaseB kwh=9614.287 customers=4.0 ! This is one phase of a 1-ph load
new load.2265614_B_stfd_VENTRY_426_dist phases=1 conn=delta bus1=STN_426852.2.3 kV=10.7 kw=2.5512234680176 kvar=0.872293584353958 status=variable model=8 ZIPV=(0.8, 0.0, 0.19999999999999996, 0.8, 0.0, 0.19999999999999996, 0.8) ! daily=LS_PhaseB kwh=5524.0 customers=1.0 ! This is one phase of a 1-ph load
new load.2265620_B_stfd_VENTRY_426_dist phases=1 conn=delta bus1=STN_426761.2.3 kV=10.7 kw=1.52038878651591 kvar=0.51983897170406 status=variable model=8 ZIPV=(0.8, 0.0, 0.19999999999999996, 0.8, 0.0, 0.19999999999999996, 0.8) ! daily=LS_PhaseB kwh=3292.0 customers=1.0 ! This is one phase of a 1-ph load
new load.2265623_B_stfd_VENTRY_426_dist phases=1 conn=delta bus1=STN_426508.2.3 kV=10.7 kw=8.4411135635332 kvar=2.88611691550277 status=variable model=8 ZIPV=(0.8, 0.0, 0.19999999999999996, 0.8, 0.0, 0.19999999999999996, 0.8) ! daily=LS_PhaseB kwh=18277.0 customers=6.0 ! This is one phase of a 1-ph load
new load.2265632_A_stfd_VENTRY_426_dist phases=1 conn=delta bus1=STN_426509.1.2 kV=10.7 kw=17.0318644195425 kvar=5.82339659735792 status=variable model=8 ZIPV=(0.8, 0.0, 0.19999999999999996, 0.8, 0.0, 0.19999999999999996, 0.8) ! daily=LS_PhaseA kwh=36878.0 customers=10.0 ! This is one phase of a 1-ph load
new load.2265640_A_stfd_VENTRY_426_dist phases=1 conn=delta bus1=STN_426510.1.2 kV=10.7 kw=15.3087263385914 kvar=5.23423523544183 status=variable model=8 ZIPV=(0.8, 0.0, 0.19999999999999996, 0.8, 0.0, 0.19999999999999996, 0.8) ! daily=LS_PhaseA kwh=33147.0 customers=14.0 ! This is one phase of a 1-ph load
new load.2265677_B_stfd_VENTRY_426_dist phases=1 conn=delta bus1=STN_426122.2.3 kV=10.7 kw=4.10163208172778 kvar=1.40239669128303 status=variable model=8 ZIPV=(0.8, 0.0, 0.19999999999999996, 0.8, 0.0, 0.19999999999999996, 0.8) ! daily=LS_PhaseB kwh=8881.0 customers=5.0 ! This is one phase of a 1-ph load
new load.2265683_B_stfd_VENTRY_426_dist phases=1 conn=delta bus1=STN_426015.2.3 kV=10.7 kw=9.16620785114862 kvar=3.13403525863015 status=variable model=8 ZIPV=(0.8, 0.0, 0.19999999999999996, 0.8, 0.0, 0.19999999999999996, 0.8) ! daily=LS_PhaseB kwh=19847.0 customers=7.0 ! This is one phase of a 1-ph load
new load.2265689_B_stfd_VENTRY_426_dist phases=1 conn=delta bus1=STN_426462.2.3 kV=10.7 kw=14.0562067793475 kvar=4.80598393189948 status=variable model=8 ZIPV=(0.8, 0.0, 0.19999999999999996, 0.8, 0.0, 0.19999999999999996, 0.8) ! daily=LS_PhaseB kwh=30435.0 customers=8.0 ! This is one phase of a 1-ph load
new load.2265695_A_stfd_VENTRY_426_dist phases=1 conn=delta bus1=STN_426593.1.2 kV=10.7 kw=16.992145878947 kvar=5.80981635690638 status=variable model=8 ZIPV=(0.8, 0.0, 0.19999999999999996, 0.8, 0.0, 0.19999999999999996, 0.8) ! daily=LS_PhaseA kwh=36792.0 customers=11.0 ! This is one phase of a 1-ph load
new load.2265701_C_stfd_VENTRY_426_dist phases=1 conn=delta bus1=STN_426072.1.3 kV=10.7 kw=5.71669878477945 kvar=1.95460716638908 status=variable model=8 ZIPV=(0.8, 0.0, 0.19999999999999996, 0.8, 0.0, 0.19999999999999996, 0.8) ! daily=LS_PhaseC kwh=12378.0 customers=6.0 ! This is one phase of a 1-ph load
new load.2265707_B_stfd_VENTRY_426_dist phases=1 conn=delta bus1=STN_426028.2.3 kV=10.7 kw=0.757423332286177 kvar=0.258972027215875 status=variable model=8 ZIPV=(0.8, 0.0, 0.19999999999999996, 0.8, 0.0, 0.19999999999999996, 0.8) ! daily=LS_PhaseB kwh=1640.0 customers=2.0 ! This is one phase of a 1-ph load
new load.2265713_B_stfd_VENTRY_426_dist phases=1 conn=delta bus1=STN_426498.2.3 kV=10.7 kw=12.2601897948386 kvar=4.19190440785247 status=variable model=8 ZIPV=(0.8, 0.0, 0.19999999999999996, 0.8, 0.0, 0.19999999999999996, 0.8) ! daily=LS_PhaseB kwh=26546.2 customers=11.0 ! This is one phase of a 1-ph load
new load.2265720_B_stfd_VENTRY_426_dist phases=1 conn=delta bus1=STN_426081.2.3 kV=10.7 kw=2.16881705391213 kvar=0.74154429256448 status=variable model=8 ZIPV=(0.8, 0.0, 0.19999999999999996, 0.8, 0.0, 0.19999999999999996, 0.8) ! daily=LS_PhaseB kwh=4696.0 customers=2.0 ! This is one phase of a 1-ph load
new load.2265723_B_stfd_VENTRY_426_dist phases=1 conn=delta bus1=STN_426502.2.3 kV=10.7 kw=29.1317021528143 kvar=9.96047473213152 status=variable model=8 ZIPV=(0.8, 0.0, 0.19999999999999996, 0.8, 0.0, 0.19999999999999996, 0.8) ! daily=LS_PhaseB kwh=63077.0 customers=30.0 ! This is one phase of a 1-ph load
new load.2265729_B_stfd_VENTRY_426_dist phases=1 conn=delta bus1=STN_426090.2.3 kV=10.7 kw=7.82686171478893 kvar=2.6760969178216 status=variable model=8 ZIPV=(0.8, 0.0, 0.19999999999999996, 0.8, 0.0, 0.19999999999999996, 0.8) ! daily=LS_PhaseB kwh=16947.0 customers=7.0 ! This is one phase of a 1-ph load
new load.2265743_A_stfd_VENTRY_426_dist phases=1 conn=delta bus1=STN_426514.1.2 kV=10.7 kw=19.0191769798031 kvar=6.50288234925423 status=variable model=8 ZIPV=(0.8, 0.0, 0.19999999999999996, 0.8, 0.0, 0.19999999999999996, 0.8) ! daily=LS_PhaseA kwh=41181.0 customers=10.0 ! This is one phase of a 1-ph load
new load.2265746_A_stfd_VENTRY_426_dist phases=1 conn=delta bus1=STN_426573.1.2 kV=10.7 kw=7.42413418689043 kvar=2.53839959603365 status=variable model=8 ZIPV=(0.8, 0.0, 0.19999999999999996, 0.8, 0.0, 0.19999999999999996, 0.8) ! daily=LS_PhaseA kwh=16075.0 customers=5.0 ! This is one phase of a 1-ph load
new load.2265753_A_stfd_VENTRY_426_dist phases=1 conn=delta bus1=STN_426848.1.2 kV=10.7 kw=2.1983750376111 kvar=0.751650518016805 status=variable model=8 ZIPV=(0.8, 0.0, 0.19999999999999996, 0.8, 0.0, 0.19999999999999996, 0.8) ! daily=LS_PhaseA kwh=4760.0 customers=3.0 ! This is one phase of a 1-ph load
new load.2265784_B_stfd_VENTRY_426_dist phases=1 conn=delta bus1=STN_426676.2.3 kV=10.7 kw=5.46684145382407 kvar=1.86917797936238 status=variable model=8 ZIPV=(0.8, 0.0, 0.19999999999999996, 0.8, 0.0, 0.19999999999999996, 0.8) ! daily=LS_PhaseB kwh=11837.0 customers=4.0 ! This is one phase of a 1-ph load
new load.2265787_B_stfd_VENTRY_426_dist phases=1 conn=delta bus1=STN_426059.2.3 kV=10.7 kw=0.0314053576801585 kvar=0.0107378645430972 status=variable model=8 ZIPV=(0.8, 0.0, 0.19999999999999996, 0.8, 0.0, 0.19999999999999996, 0.8) ! daily=LS_PhaseB kwh=68.0 customers=1.0 ! This is one phase of a 1-ph load
new load.2265793_B_stfd_VENTRY_426_dist phases=1 conn=delta bus1=STN_426087.2.3 kV=10.7 kw=2.08291416378699 kvar=0.712173074843655 status=variable model=8 ZIPV=(0.8, 0.0, 0.19999999999999996, 0.8, 0.0, 0.19999999999999996, 0.8) ! daily=LS_PhaseB kwh=4510.0 customers=1.0 ! This is one phase of a 1-ph load
new load.2265796_B_stfd_VENTRY_426_dist phases=1 conn=delta bus1=STN_426800.2.3 kV=10.7 kw=9.8871455473064 kvar=3.38053241380333 status=variable model=8 ZIPV=(0.8, 0.0, 0.19999999999999996, 0.8, 0.0, 0.19999999999999996, 0.8) ! daily=LS_PhaseB kwh=21408.0 customers=6.0 ! This is one phase of a 1-ph load
new load.2265802_A_stfd_VENTRY_426_dist phases=1 conn=delta bus1=STN_426512.1.2 kV=10.7 kw=10.0668026669767 kvar=3.44195931538075 status=variable model=8 ZIPV=(0.8, 0.0, 0.19999999999999996, 0.8, 0.0, 0.19999999999999996, 0.8) ! daily=LS_PhaseA kwh=21797.0 customers=9.0 ! This is one phase of a 1-ph load
new load.2265805_A_stfd_VENTRY_426_dist phases=1 conn=delta bus1=STN_426747.1.2 kV=10.7 kw=4.49789380069212 kvar=1.53788327625329 status=variable model=8 ZIPV=(0.8, 0.0, 0.19999999999999996, 0.8, 0.0, 0.19999999999999996, 0.8) ! daily=LS_PhaseA kwh=9739.0 customers=1.0 ! This is one phase of a 1-ph load
new load.2265824_C_stfd_VENTRY_426_dist phases=1 conn=delta bus1=STN_426523.1.3 kV=10.7 kw=29.8106120909 kvar=10.1926020979896 status=variable model=8 ZIPV=(0.8, 0.0, 0.19999999999999996, 0.8, 0.0, 0.19999999999999996, 0.8) ! daily=LS_PhaseC kwh=64547.0 customers=14.0 ! This is one phase of a 1-ph load
new load.2265833_C_stfd_VENTRY_426_dist phases=1 conn=delta bus1=STN_426137.1.3 kV=10.7 kw=3.62500959458183 kvar=1.23943380586427 status=variable model=8 ZIPV=(0.8, 0.0, 0.19999999999999996, 0.8, 0.0, 0.19999999999999996, 0.8) ! daily=LS_PhaseC kwh=7849.0 customers=1.0 ! This is one phase of a 1-ph load
new load.2265839_C_stfd_VENTRY_426_dist phases=1 conn=delta bus1=STN_4264005.1.3 kV=10.7 kw=1.28115385595235 kvar=0.43804170944929 status=variable model=8 ZIPV=(0.8, 0.0, 0.19999999999999996, 0.8, 0.0, 0.19999999999999996, 0.8) ! daily=LS_PhaseC kwh=2774.0 customers=1.0 ! This is one phase of a 1-ph load
new load.2265852_C_stfd_VENTRY_426_dist phases=1 conn=delta bus1=STN_426629.1.3 kV=10.7 kw=16.4324839313468 kvar=5.61846129435748 status=variable model=8 ZIPV=(0.8, 0.0, 0.19999999999999996, 0.8, 0.0, 0.19999999999999996, 0.8) ! daily=LS_PhaseC kwh=35580.2 customers=10.0 ! This is one phase of a 1-ph load
new load.2265857_A_stfd_VENTRY_426_dist phases=1 conn=delta bus1=STN_426632.1.2 kV=10.7 kw=17.5131053416414 kvar=5.98793858050362 status=variable model=8 ZIPV=(0.8, 0.0, 0.19999999999999996, 0.8, 0.0, 0.19999999999999996, 0.8) ! daily=LS_PhaseA kwh=37920.0 customers=8.0 ! This is one phase of a 1-ph load
new load.2265867_C_stfd_VENTRY_426_dist phases=1 conn=delta bus1=STN_426635.1.3 kV=10.7 kw=5.33059762271162 kvar=1.82259459641806 status=variable model=8 ZIPV=(0.8, 0.0, 0.19999999999999996, 0.8, 0.0, 0.19999999999999996, 0.8) ! daily=LS_PhaseC kwh=11542.0 customers=3.0 ! This is one phase of a 1-ph load
new load.2265877_C_stfd_VENTRY_426_dist phases=1 conn=delta bus1=STN_426439.1.3 kV=10.7 kw=11.2315719621144 kvar=3.8402077621115 status=variable model=8 ZIPV=(0.8, 0.0, 0.19999999999999996, 0.8, 0.0, 0.19999999999999996, 0.8) ! daily=LS_PhaseC kwh=24319.0 customers=10.0 ! This is one phase of a 1-ph load
new load.2265896_A_stfd_VENTRY_426_dist phases=1 conn=delta bus1=STN_426657.1.2 kV=10.7 kw=1.09610840822241 kvar=0.374772474553862 status=variable model=8 ZIPV=(0.8, 0.0, 0.19999999999999996, 0.8, 0.0, 0.19999999999999996, 0.8) ! daily=LS_PhaseA kwh=2373.333 customers=1.0 ! This is one phase of a 3-ph load
new load.2265896_B_stfd_VENTRY_426_dist phases=1 conn=delta bus1=STN_426657.2.3 kV=10.7 kw=1.09610840822241 kvar=0.374772474553862 status=variable model=8 ZIPV=(0.8, 0.0, 0.19999999999999996, 0.8, 0.0, 0.19999999999999996, 0.8) ! daily=LS_PhaseB kwh=2373.333 customers=1.0 ! This is one phase of a 3-ph load
new load.2265896_C_stfd_VENTRY_426_dist phases=1 conn=delta bus1=STN_426657.1.3 kV=10.7 kw=1.09610840822241 kvar=0.374772474553862 status=variable model=8 ZIPV=(0.8, 0.0, 0.19999999999999996, 0.8, 0.0, 0.19999999999999996, 0.8) ! daily=LS_PhaseC kwh=2373.333 customers=1.0 ! This is one phase of a 3-ph load
new load.2265900_B_stfd_VENTRY_426_dist phases=1 conn=delta bus1=STN_426469.2.3 kV=10.7 kw=3.11328700179337 kvar=1.06446977772086 status=variable model=8 ZIPV=(0.8, 0.0, 0.19999999999999996, 0.8, 0.0, 0.19999999999999996, 0.8) ! daily=LS_PhaseB kwh=6741.0 customers=1.0 ! This is one phase of a 1-ph load
new load.2265905_C_stfd_VENTRY_426_dist phases=1 conn=delta bus1=STN_426466.1.3 kV=10.7 kw=8.48314132160518 kvar=2.9004867048178 status=variable model=8 ZIPV=(0.8, 0.0, 0.19999999999999996, 0.8, 0.0, 0.19999999999999996, 0.8) ! daily=LS_PhaseC kwh=18368.0 customers=4.0 ! This is one phase of a 1-ph load
new load.2265910_A_stfd_VENTRY_426_dist phases=1 conn=delta bus1=STN_426104.1.2 kV=10.7 kw=2.9654970832985 kvar=1.01393865045922 status=variable model=8 ZIPV=(0.8, 0.0, 0.19999999999999996, 0.8, 0.0, 0.19999999999999996, 0.8) ! daily=LS_PhaseA kwh=6421.0 customers=4.0 ! This is one phase of a 1-ph load
new load.2265924_A_stfd_VENTRY_426_dist phases=1 conn=delta bus1=STN_426511.1.2 kV=10.7 kw=13.6342356185304 kvar=4.66170698361273 status=variable model=8 ZIPV=(0.8, 0.0, 0.19999999999999996, 0.8, 0.0, 0.19999999999999996, 0.8) ! daily=LS_PhaseA kwh=29521.333 customers=22.0 ! This is one phase of a 3-ph load
new load.2265924_B_stfd_VENTRY_426_dist phases=1 conn=delta bus1=STN_426511.2.3 kV=10.7 kw=13.6342356185304 kvar=4.66170698361273 status=variable model=8 ZIPV=(0.8, 0.0, 0.19999999999999996, 0.8, 0.0, 0.19999999999999996, 0.8) ! daily=LS_PhaseB kwh=29521.333 customers=22.0 ! This is one phase of a 3-ph load
new load.2265924_C_stfd_VENTRY_426_dist phases=1 conn=delta bus1=STN_426511.1.3 kV=10.7 kw=13.6342356185304 kvar=4.66170698361273 status=variable model=8 ZIPV=(0.8, 0.0, 0.19999999999999996, 0.8, 0.0, 0.19999999999999996, 0.8) ! daily=LS_PhaseC kwh=29521.333 customers=22.0 ! This is one phase of a 3-ph load
new load.2265928_C_stfd_VENTRY_426_dist phases=1 conn=delta bus1=STN_426517.1.3 kV=10.7 kw=11.3899842810011 kvar=3.89437081414505 status=variable model=8 ZIPV=(0.8, 0.0, 0.19999999999999996, 0.8, 0.0, 0.19999999999999996, 0.8) ! daily=LS_PhaseC kwh=24662.0 customers=15.0 ! This is one phase of a 1-ph load
new load.2265933_A_stfd_VENTRY_426_dist phases=1 conn=delta bus1=STN_426516.1.2 kV=10.7 kw=0.726479818101315 kvar=0.24839207244547 status=variable model=8 ZIPV=(0.8, 0.0, 0.19999999999999996, 0.8, 0.0, 0.19999999999999996, 0.8) ! daily=LS_PhaseA kwh=1573.0 customers=3.0 ! This is one phase of a 3-ph load
new load.2265933_B_stfd_VENTRY_426_dist phases=1 conn=delta bus1=STN_426516.2.3 kV=10.7 kw=0.726479818101315 kvar=0.24839207244547 status=variable model=8 ZIPV=(0.8, 0.0, 0.19999999999999996, 0.8, 0.0, 0.19999999999999996, 0.8) ! daily=LS_PhaseB kwh=1573.0 customers=3.0 ! This is one phase of a 3-ph load
new load.2265933_C_stfd_VENTRY_426_dist phases=1 conn=delta bus1=STN_426516.1.3 kV=10.7 kw=0.726479818101315 kvar=0.24839207244547 status=variable model=8 ZIPV=(0.8, 0.0, 0.19999999999999996, 0.8, 0.0, 0.19999999999999996, 0.8) ! daily=LS_PhaseC kwh=1573.0 customers=3.0 ! This is one phase of a 3-ph load
new load.2265937_C_stfd_VENTRY_426_dist phases=1 conn=delta bus1=STN_426035.1.3 kV=10.7 kw=3.18163983909725 kvar=1.08784042407937 status=variable model=8 ZIPV=(0.8, 0.0, 0.19999999999999996, 0.8, 0.0, 0.19999999999999996, 0.8) ! daily=LS_PhaseC kwh=6889.0 customers=3.0 ! This is one phase of a 1-ph load
new load.2265942_B_stfd_VENTRY_426_dist phases=1 conn=delta bus1=STN_426465.2.3 kV=10.7 kw=7.00385660617065 kvar=2.39470170288338 status=variable model=8 ZIPV=(0.8, 0.0, 0.19999999999999996, 0.8, 0.0, 0.19999999999999996, 0.8) ! daily=LS_PhaseB kwh=15165.0 customers=5.0 ! This is one phase of a 1-ph load
new load.2265947_C_stfd_VENTRY_426_dist phases=1 conn=delta bus1=STN_426518.1.3 kV=10.7 kw=32.1946482136202 kvar=11.0077323446289 status=variable model=8 ZIPV=(0.8, 0.0, 0.19999999999999996, 0.8, 0.0, 0.19999999999999996, 0.8) ! daily=LS_PhaseC kwh=69709.0 customers=17.0 ! This is one phase of a 1-ph load
new load.2265957_C_stfd_VENTRY_426_dist phases=1 conn=delta bus1=STN_426520.1.3 kV=10.7 kw=2.34939786057304 kvar=0.803287013687287 status=variable model=8 ZIPV=(0.8, 0.0, 0.19999999999999996, 0.8, 0.0, 0.19999999999999996, 0.8) ! daily=LS_PhaseC kwh=5087.0 customers=3.0 ! This is one phase of a 1-ph load
new load.2265972_A_stfd_VENTRY_426_dist phases=1 conn=delta bus1=STN_426541.1.2 kV=10.7 kw=12.0073152403285 kvar=4.10544359628078 status=variable model=8 ZIPV=(0.8, 0.0, 0.19999999999999996, 0.8, 0.0, 0.19999999999999996, 0.8) ! daily=LS_PhaseA kwh=25998.667 customers=21.0 ! This is one phase of a 3-ph load
new load.2265972_B_stfd_VENTRY_426_dist phases=1 conn=delta bus1=STN_426541.2.3 kV=10.7 kw=12.0073152403285 kvar=4.10544359628078 status=variable model=8 ZIPV=(0.8, 0.0, 0.19999999999999996, 0.8, 0.0, 0.19999999999999996, 0.8) ! daily=LS_PhaseB kwh=25998.667 customers=21.0 ! This is one phase of a 3-ph load
new load.2265972_C_stfd_VENTRY_426_dist phases=1 conn=delta bus1=STN_426541.1.3 kV=10.7 kw=12.0073152403285 kvar=4.10544359628078 status=variable model=8 ZIPV=(0.8, 0.0, 0.19999999999999996, 0.8, 0.0, 0.19999999999999996, 0.8) ! daily=LS_PhaseC kwh=25998.667 customers=21.0 ! This is one phase of a 3-ph load
new load.400080165_A_stfd_VENTRY_426_dist phases=1 conn=delta bus1=STN_426610.1.2 kV=10.7 kw=12.7103948340536 kvar=4.34583485427322 status=variable model=8 ZIPV=(0.8, 0.0, 0.19999999999999996, 0.8, 0.0, 0.19999999999999996, 0.8) ! daily=LS_PhaseA kwh=27521.0 customers=8.0 ! This is one phase of a 1-ph load
new load.502412433_A_stfd_VENTRY_426_dist phases=1 conn=delta bus1=STN_426621.1.2 kV=10.7 kw=3.85239038815163 kvar=1.31717799798334 status=variable model=8 ZIPV=(0.8, 0.0, 0.19999999999999996, 0.8, 0.0, 0.19999999999999996, 0.8) ! daily=LS_PhaseA kwh=8341.333 customers=2.0 ! This is one phase of a 3-ph load
new load.502412433_B_stfd_VENTRY_426_dist phases=1 conn=delta bus1=STN_426621.2.3 kV=10.7 kw=3.85239038815163 kvar=1.31717799798334 status=variable model=8 ZIPV=(0.8, 0.0, 0.19999999999999996, 0.8, 0.0, 0.19999999999999996, 0.8) ! daily=LS_PhaseB kwh=8341.333 customers=2.0 ! This is one phase of a 3-ph load
new load.502412433_C_stfd_VENTRY_426_dist phases=1 conn=delta bus1=STN_426621.1.3 kV=10.7 kw=3.85239038815163 kvar=1.31717799798334 status=variable model=8 ZIPV=(0.8, 0.0, 0.19999999999999996, 0.8, 0.0, 0.19999999999999996, 0.8) ! daily=LS_PhaseC kwh=8341.333 customers=2.0 ! This is one phase of a 3-ph load
new load.502413111_A_stfd_VENTRY_426_dist phases=1 conn=delta bus1=STN_426470.1.2 kV=10.7 kw=25.8532289735885 kvar=8.83952583974103 status=variable model=8 ZIPV=(0.8, 0.0, 0.19999999999999996, 0.8, 0.0, 0.19999999999999996, 0.8) ! daily=LS_PhaseA kwh=55978.333 customers=46.0 ! This is one phase of a 3-ph load
new load.502413111_B_stfd_VENTRY_426_dist phases=1 conn=delta bus1=STN_426470.2.3 kV=10.7 kw=25.8532289735885 kvar=8.83952583974103 status=variable model=8 ZIPV=(0.8, 0.0, 0.19999999999999996, 0.8, 0.0, 0.19999999999999996, 0.8) ! daily=LS_PhaseB kwh=55978.333 customers=46.0 ! This is one phase of a 3-ph load
new load.502413111_C_stfd_VENTRY_426_dist phases=1 conn=delta bus1=STN_426470.1.3 kV=10.7 kw=25.8532289735885 kvar=8.83952583974103 status=variable model=8 ZIPV=(0.8, 0.0, 0.19999999999999996, 0.8, 0.0, 0.19999999999999996, 0.8) ! daily=LS_PhaseC kwh=55978.333 customers=46.0 ! This is one phase of a 3-ph load
new load.502563015_A_stfd_VENTRY_426_dist phases=1 conn=delta bus1=STN_426816.1.2 kV=10.7 kw=4.18907429622273 kvar=1.43229422227624 status=variable model=8 ZIPV=(0.8, 0.0, 0.19999999999999996, 0.8, 0.0, 0.19999999999999996, 0.8) ! daily=LS_PhaseA kwh=9070.333 customers=11.0 ! This is one phase of a 3-ph load
new load.502563015_B_stfd_VENTRY_426_dist phases=1 conn=delta bus1=STN_426816.2.3 kV=10.7 kw=4.18907429622273 kvar=1.43229422227624 status=variable model=8 ZIPV=(0.8, 0.0, 0.19999999999999996, 0.8, 0.0, 0.19999999999999996, 0.8) ! daily=LS_PhaseB kwh=9070.333 customers=11.0 ! This is one phase of a 3-ph load
new load.502563015_C_stfd_VENTRY_426_dist phases=1 conn=delta bus1=STN_426816.1.3 kV=10.7 kw=4.18907429622273 kvar=1.43229422227624 status=variable model=8 ZIPV=(0.8, 0.0, 0.19999999999999996, 0.8, 0.0, 0.19999999999999996, 0.8) ! daily=LS_PhaseC kwh=9070.333 customers=11.0 ! This is one phase of a 3-ph load
new load.502721877_B_stfd_VENTRY_426_dist phases=1 conn=delta bus1=STN_426737.2.3 kV=10.7 kw=1.82890024137394 kvar=0.62532269986272 status=variable model=8 ZIPV=(0.8, 0.0, 0.19999999999999996, 0.8, 0.0, 0.19999999999999996, 0.8) ! daily=LS_PhaseB kwh=3960.0 customers=1.0 ! This is one phase of a 1-ph load
new load.502721879_B_stfd_VENTRY_426_dist phases=1 conn=delta bus1=STN_426821.2.3 kV=10.7 kw=1.7683987434901 kvar=0.60463651963999 status=variable model=8 ZIPV=(0.8, 0.0, 0.19999999999999996, 0.8, 0.0, 0.19999999999999996, 0.8) ! daily=LS_PhaseB kwh=3829.0 customers=3.0 ! This is one phase of a 1-ph load
new load.502979053_B_stfd_VENTRY_426_dist phases=1 conn=delta bus1=STN_426440.2.3 kV=10.7 kw=3.65318204779493 kvar=1.24906630199852 status=variable model=8 ZIPV=(0.8, 0.0, 0.19999999999999996, 0.8, 0.0, 0.19999999999999996, 0.8) ! daily=LS_PhaseB kwh=7910.0 customers=3.0 ! This is one phase of a 1-ph load
...