data/IrishMVGrid/OpenDSS_Model/switches_stfd_VENTRY_426.dss
new line.501675506_switch bus1=503299949_switch1.1.2.3 bus2=503299949.1.2.3 phases=3 switch=yes linecode=DUMMY__VENTRY_426_3ph enabled=true  ! rating=300.0 emer=300.0 withstand=300.0
new line.2266645_switch bus1=2266646_switch1.1.2.3 bus2=2266646.1.2.3 phases=3 switch=yes linecode=DUMMY__VENTRY_426_3ph enabled=true  ! rating=300.0 emer=300.0 withstand=300.0
new line.2264229_switch bus1=2264228_switch1.1.2.3 bus2=2264228.1.2.3 phases=3 switch=yes linecode=DUMMY__VENTRY_426_3ph enabled=true  ! rating=300.0 emer=300.0 withstand=300.0
new line.506203032_switch bus1=506377797_switch1.1.2.3 bus2=506377797.1.2.3 phases=3 switch=yes linecode=DUMMY__VENTRY_426_3ph enabled=true  ! rating=300.0 emer=300.0 withstand=300.0
new line.506377800_recloser bus1=506377801_recloser1.1.2.3 bus2=506377801.1.2.3 phases=3 switch=yes linecode=DUMMY__VENTRY_426_3ph enabled=false  ! rating=560 imterrupting_rating=10000.0
new line.400164534_switch bus1=2264043_switch1.1.2.3 bus2=2264043.1.2.3 phases=3 switch=yes linecode=DUMMY__VENTRY_426_3ph enabled=true  ! rating=300.0 emer=300.0 withstand=300.0
new line.2264262_switch bus1=2264263_switch1.1.2.3 bus2=2264263.1.2.3 phases=3 switch=yes linecode=DUMMY__VENTRY_426_3ph enabled=true  ! rating=300.0 emer=300.0 withstand=300.0
new line.501231768_switch bus1=502412442_switch1.1.2.3 bus2=502412442.1.2.3 phases=3 switch=yes linecode=DUMMY__VENTRY_426_3ph enabled=true  ! rating=300.0 emer=300.0 withstand=300.0
new line.505832263_switch bus1=505832264_switch1.1.3 bus2=505832264.1.3 phases=2 switch=yes linecode=DUMMY__VENTRY_426_2ph enabled=true  ! rating=300.0 emer=300.0 withstand=300.0
new line.503267634_switch bus1=503267635_switch1.1.3 bus2=503267635.1.3 phases=2 switch=yes linecode=DUMMY__VENTRY_426_2ph enabled=true  ! rating=300.0 emer=300.0 withstand=300.0
new line.501706126_switch bus1=501706127_switch1.1.2.3 bus2=501706127.1.2.3 phases=3 switch=yes linecode=DUMMY__VENTRY_426_3ph enabled=true  ! rating=300.0 emer=300.0 withstand=300.0
new line.617669816_switch bus1=601420772_switch1.1.3 bus2=601420772.1.3 phases=2 switch=yes linecode=DUMMY__VENTRY_426_2ph enabled=true  ! rating=300.0 emer=300.0 withstand=300.0
new line.504012121_switch bus1=504012122_switch1.1.2.3 bus2=504012122.1.2.3 phases=3 switch=yes linecode=DUMMY__VENTRY_426_3ph enabled=true  ! rating=300.0 emer=300.0 withstand=300.0
new line.2264431_switch bus1=2264432_switch1.1.2.3 bus2=2264432.1.2.3 phases=3 switch=yes linecode=DUMMY__VENTRY_426_3ph enabled=true  ! rating=300.0 emer=300.0 withstand=300.0
new line.609811605_switch bus1=601337093_switch1.1.2.3 bus2=601337093.1.2.3 phases=3 switch=yes linecode=DUMMY__VENTRY_426_3ph enabled=true  ! rating=300.0 emer=300.0 withstand=300.0
new line.400182041_recloser bus1=601337006_recloser1.1.2.3 bus2=601337006.1.2.3 phases=3 switch=yes linecode=DUMMY__VENTRY_426_3ph enabled=true  ! rating=630 imterrupting_rating=10000.0
new line.609811537_switch bus1=601337072_switch1.1.2.3 bus2=601337072.1.2.3 phases=3 switch=yes linecode=DUMMY__VENTRY_426_3ph enabled=true  ! rating=300.0 emer=300.0 withstand=300.0
new line.609576776_switch bus1=601331569_switch1.1.2.3 bus2=601331569.1.2.3 phases=3 switch=yes linecode=DUMMY__VENTRY_426_3ph enabled=true  ! rating=300.0 emer=300.0 withstand=300.0
new line.609576796_recloser bus1=601331367_recloser1.1.2.3 bus2=601331367.1.2.3 phases=3 switch=yes linecode=DUMMY__VENTRY_426_3ph enabled=true  ! rating=630 imterrupting_rating=10000.0
new line.609576779_switch bus1=601331568_switch1.1.2.3 bus2=601331568.1.2.3 phases=3 switch=yes linecode=DUMMY__VENTRY_426_3ph enabled=true  ! rating=300.0 emer=300.0 withstand=300.0
new line.2264824_switch bus1=504164322_switch1.1.2.3 bus2=504164322.1.2.3 phases=3 switch=yes linecode=DUMMY__VENTRY_426_3ph enabled=true  ! rating=300.0 emer=300.0 withstand=300.0
new line.400182039_switch bus1=400182040_switch1.1.2.3 bus2=400182040.1.2.3 phases=3 switch=yes linecode=DUMMY__VENTRY_426_3ph enabled=true  ! rating=300.0 emer=300.0 withstand=300.0
new line.505103563_switch bus1=505103564_switch1.1.2.3 bus2=505103564.1.2.3 phases=3 switch=yes linecode=DUMMY__VENTRY_426_3ph enabled=true  ! rating=300.0 emer=300.0 withstand=300.0
new line.2264136_switch bus1=2264137_switch1.1.2.3 bus2=2264137.1.2.3 phases=3 switch=yes linecode=DUMMY__VENTRY_426_3ph enabled=true  ! rating=300.0 emer=300.0 withstand=300.0
new line.505057987_switch bus1=505057988_switch1.1.2.3 bus2=505057988.1.2.3 phases=3 switch=yes linecode=DUMMY__VENTRY_426_3ph enabled=true  ! rating=300.0 emer=300.0 withstand=300.0
new line.400182034_switch bus1=400182035_switch1.2.3 bus2=400182035.2.3 phases=2 switch=yes linecode=DUMMY__VENTRY_426_2ph enabled=true  ! rating=300.0 emer=300.0 withstand=300.0
new line.400181855_switch bus1=506016905_switch1.1.2.3 bus2=506016905.1.2.3 phases=3 switch=yes linecode=DUMMY__VENTRY_426_3ph enabled=true  ! rating=300.0 emer=300.0 withstand=300.0
...